# =========================
# pkg AUTODIFF parameters :
# =========================
#  inAdExact :: get an exact adjoint (no approximation) (def=.True.)
#
 &AUTODIFF_PARM01
 useKPPinAdMode = .FALSE.,
 viscFacInAd = 20.0,
 &
